#override USE_generic_tracer = True
#override MAX_FIELDS=500
#override OBC_TIDE_NODAL_REF_DATE = ${fyear},7,2
DT_OBC_SEG_UPDATE_OBGC = 3600
#override CHL_FROM_FILE = False
#override DO_GEOTHERMAL = True
#override GENERIC_TRACER_IC_FILE = "bgc_ics_75z.nc"
#override SAL_SCALAR_VALUE = 0.0
!SPLIT_RK2B = True
!#override DIABATIC_FIRST = True
!#override THERMO_SPANS_COUPLING = False
#override BBL_EFFIC = 0.0
