DEBUG = False
DEBUG_BT = False
!VERBOSITY = 9
#override ENERGYSAVEDAYS = 0.0416666666666667 !   [days] default = 1.0
!#override DIABATIC_FIRST = True
#override RESTART_CHECKSUMS_REQUIRED = False
!#override SPLIT_RK2B = True
OBC_HOR_INDEXING_BUG = False

MLE%
!#override USE_CR_GRID = True
!#override USE_MLD_GRID = True
!#override MLD_TFILT_FILE = "restrat_vars_81.nc"
!#override MLD_TFILT_VAR = "MLD_tfilt"
!#override CR_FILE = "restrat_vars_81.nc"
!#override CR_VAR = "Cr"
%MLE
!OBC_REVERSE_SEGMENT_ORDER = True
#override TIDES_ANSWER_DATE = 99991231
#override WAVE_INTERFACE_ANSWER_DATE = 99991231
#override MASS_WEIGHT_IN_PRESSURE_GRADIENT_TOP = True
!#override RESOLN_FUNCTION_OBC_BUG = True
RESCALE_STRONG_DRAG = True
