!DEBUG = True
DEBUG_BT = False
!VERBOSITY = 9
!#override ENERGYSAVEDAYS = 0.0416666666666667 !   [days] default = 1.0
!#override DIABATIC_FIRST = True
#override RESTART_CHECKSUMS_REQUIRED = False
TIDAL_SAL_FLATHER = True
!#override SPLIT_RK2B = True
