#override RESOLN_SCALED_KHTR = True
#override KH_RES_FN_POWER = 100
#override VISC_RES_FN_POWER = 100
#override MIN_THICKNESS = 1.e-6
SAVE_INITIAL_CONDS = True
LIQUID_RUNOFF_FROM_DATA = True
DEBUG = False
DEBUG_BT = False
!VERBOSITY = 9
!#override LINEARIZED_BT_CORIOLIS = False
#override ENERGYSAVEDAYS = 0.0416666666666667 !   [days] default = 1.0
#override BT_STRONG_DRAG = True
#override BT_NONLIN_STRESS = True
#override USE_GRID_SPACE_DIAGNOSTIC_AXES = True
#override DO_RIVERMIX = True
#override RIVERMIX_DEPTH = 10
#override USE_LA_LI2016 = True
#override DOUBLE_DIFFUSION = True        !   [Boolean] default = False
#override RESTART_CHECKSUMS_REQUIRED = False
#override INTERNAL_WAVE_SPEED_BETTER_EST = True
#override INTERNAL_WAVE_SPEED_MIN = 1.e-6
#override PARALLEL_RESTARTFILES = False
