!DEBUG = True
DEBUG_BT = False
!VERBOSITY = 9
!#override ENERGYSAVEDAYS = 0.0416666666666667 !   [days] default = 1.0
!#override DIABATIC_FIRST = True
#override RESTART_CHECKSUMS_REQUIRED = False
TIDAL_SAL_FLATHER = True
!#override SPLIT_RK2B = True
#override SAVE_INITIAL_CONDS = True

MLE%
#override USE_CR_GRID = True
#override USE_MLD_GRID = True
#override MLD_TFILT_FILE = "restrat_vars_81.nc"
#override MLD_TFILT_VAR = "MLD_tfilt"
#override CR_FILE = "restrat_vars_81.nc"
#override CR_VAR = "Cr"
%MLE
!P_REF = 0.0                     !   [Pa] default = 2.0E+07
!ALE_COORDINATE_CONFIG = "HYBRID:hycom1_75_800m.nc,sigma2,FNC1:2,4000,4.5,.01" ! default = "UNIFORM"
