! This file was written by the model and records the non-default parameters used at run-time.

! === module MOM ===
USE_REGRIDDING = True           !   [Boolean] default = False
                                ! If True, use the ALE algorithm (regridding/remapping). If False, use the
                                ! layered isopycnal algorithm.
REMAP_AUXILIARY_VARS = True     !   [Boolean] default = False
                                ! If true, apply ALE remapping to all of the auxiliary 3-dimensional variables
                                ! that are needed to reproduce across restarts, similarly to what is already
                                ! being done with the primary state variables.  The default should be changed to
                                ! true.
DT = 600.0                      !   [s]
                                ! The (baroclinic) dynamics time step.  The time-step that is actually used will
                                ! be an integer fraction of the forcing time-step (DT_FORCING in ocean-only mode
                                ! or the coupling timestep in coupled mode.)
DT_THERM = 1800.0               !   [s] default = 600.0
                                ! The thermodynamic and tracer advection time step. Ideally DT_THERM should be
                                ! an integer multiple of DT and less than the forcing or coupling time-step,
                                ! unless THERMO_SPANS_COUPLING is true, in which case DT_THERM can be an integer
                                ! multiple of the coupling timestep.  By default DT_THERM is set to DT.
FRAZIL = True                   !   [Boolean] default = False
                                ! If true, water freezes if it gets too cold, and the accumulated heat deficit
                                ! is returned in the surface state.  FRAZIL is only used if
                                ! ENABLE_THERMODYNAMICS is true.
BOUND_SALINITY = True           !   [Boolean] default = False
                                ! If true, limit salinity to being positive. (The sea-ice model may ask for more
                                ! salt than is available and drive the salinity negative otherwise.)
C_P = 3992.0                    !   [J kg-1 K-1] default = 3991.86795711963
                                ! The heat capacity of sea water, approximated as a constant. This is only used
                                ! if ENABLE_THERMODYNAMICS is true. The default value is from the TEOS-10
                                ! definition of conservative temperature.
CHECK_BAD_SURFACE_VALS = True   !   [Boolean] default = False
                                ! If true, check the surface state for ridiculous values.
BAD_VAL_SSH_MAX = 50.0          !   [m] default = 20.0
                                ! The value of SSH above which a bad value message is triggered, if
                                ! CHECK_BAD_SURFACE_VALS is true.
BAD_VAL_SSS_MAX = 75.0          !   [PPT] default = 45.0
                                ! The value of SSS above which a bad value message is triggered, if
                                ! CHECK_BAD_SURFACE_VALS is true.
BAD_VAL_SST_MAX = 55.0          !   [deg C] default = 45.0
                                ! The value of SST above which a bad value message is triggered, if
                                ! CHECK_BAD_SURFACE_VALS is true.
BAD_VAL_SST_MIN = -3.0          !   [deg C] default = -2.1
                                ! The value of SST below which a bad value message is triggered, if
                                ! CHECK_BAD_SURFACE_VALS is true.
SAVE_INITIAL_CONDS = True       !   [Boolean] default = False
                                ! If true, write the initial conditions to a file given by IC_OUTPUT_FILE.
WRITE_GEOM = 0                  ! default = 1
                                ! If =0, never write the geometry and vertical grid files. If =1, write the
                                ! geometry and vertical grid files only for a new simulation. If =2, always
                                ! write the geometry and vertical grid files. Other values are invalid.

! === module MOM_domains ===
REENTRANT_X = False             !   [Boolean] default = True
                                ! If true, the domain is zonally reentrant.
NIGLOBAL = 540                  !
                                ! The total number of thickness grid points in the x-direction in the physical
                                ! domain. With STATIC_MEMORY_ this is set in MOM_memory.h at compile time.
NJGLOBAL = 696                  !
                                ! The total number of thickness grid points in the y-direction in the physical
                                ! domain. With STATIC_MEMORY_ this is set in MOM_memory.h at compile time.

! === module MOM_fixed_initialization ===
INPUTDIR = "INPUT"              ! default = "."
                                ! The directory in which input files are found.

! === module MOM_grid_init ===
GRID_CONFIG = "mosaic"          !
                                ! A character string that determines the method for defining the horizontal
                                ! grid.  Current options are:
                                !     mosaic - read the grid from a mosaic (supergrid)
                                !              file set by GRID_FILE.
                                !     cartesian - use a (flat) Cartesian grid.
                                !     spherical - use a simple spherical grid.
                                !     mercator - use a Mercator spherical grid.
GRID_FILE = "ocean_hgrid.nc"    !
                                ! Name of the file from which to read horizontal grid data.
TOPO_CONFIG = "file"            !
                                ! This specifies how bathymetry is specified:
                                !     file - read bathymetric information from the file
                                !       specified by (TOPO_FILE).
                                !     flat - flat bottom set to MAXIMUM_DEPTH.
                                !     bowl - an analytically specified bowl-shaped basin
                                !       ranging between MAXIMUM_DEPTH and MINIMUM_DEPTH.
                                !     spoon - a similar shape to 'bowl', but with an vertical
                                !       wall at the southern face.
                                !     halfpipe - a zonally uniform channel with a half-sine
                                !       profile in the meridional direction.
                                !     bbuilder - build topography from list of functions.
                                !     benchmark - use the benchmark test case topography.
                                !     Neverworld - use the Neverworld test case topography.
                                !     DOME - use a slope and channel configuration for the
                                !       DOME sill-overflow test case.
                                !     ISOMIP - use a slope and channel configuration for the
                                !       ISOMIP test case.
                                !     DOME2D - use a shelf and slope configuration for the
                                !       DOME2D gravity current/overflow test case.
                                !     Kelvin - flat but with rotated land mask.
                                !     seamount - Gaussian bump for spontaneous motion test case.
                                !     dumbbell - Sloshing channel with reservoirs on both ends.
                                !     shelfwave - exponential slope for shelfwave test case.
                                !     Phillips - ACC-like idealized topography used in the Phillips config.
                                !     dense - Denmark Strait-like dense water formation and overflow.
                                !     USER - call a user modified routine.
TOPO_FILE = "ocean_topog.nc"    ! default = "topog.nc"
                                ! The file from which the bathymetry is read.
MINIMUM_DEPTH = 5.0             !   [m] default = 0.0
                                ! If MASKING_DEPTH is unspecified, then anything shallower than MINIMUM_DEPTH is
                                ! assumed to be land and all fluxes are masked out. If MASKING_DEPTH is
                                ! specified, then all depths shallower than MINIMUM_DEPTH but deeper than
                                ! MASKING_DEPTH are rounded to MINIMUM_DEPTH.
MASKING_DEPTH = 1.0             !   [m] default = -9999.0
                                ! The depth below which to mask points as land points, for which all fluxes are
                                ! zeroed out. MASKING_DEPTH is ignored if it has the special default value.
MAXIMUM_DEPTH = 6500.0          !   [m]
                                ! The maximum depth of the ocean.

! === module MOM_open_boundary ===
! Controls where open boundaries are located, what kind of boundary condition to impose, and what data to apply,
! if any.
OBC_NUMBER_OF_SEGMENTS = 4      ! default = 0
                                ! The number of open boundary segments.
OBC_FREESLIP_VORTICITY = False  !   [Boolean] default = True
                                ! If true, sets the normal gradient of tangential velocity to zero in the
                                ! relative vorticity on open boundaries. This cannot be true if another
                                ! OBC_XXX_VORTICITY option is True.
OBC_COMPUTED_VORTICITY = True   !   [Boolean] default = False
                                ! If true, uses the external values of tangential velocity in the relative
                                ! vorticity on open boundaries. This cannot be true if another OBC_XXX_VORTICITY
                                ! option is True.
OBC_FREESLIP_STRAIN = False     !   [Boolean] default = True
                                ! If true, sets the normal gradient of tangential velocity to zero in the strain
                                ! use in the stress tensor on open boundaries. This cannot be true if another
                                ! OBC_XXX_STRAIN option is True.
OBC_COMPUTED_STRAIN = True      !   [Boolean] default = False
                                ! If true, sets the normal gradient of tangential velocity to zero in the strain
                                ! use in the stress tensor on open boundaries. This cannot be true if another
                                ! OBC_XXX_STRAIN option is True.
OBC_ZERO_BIHARMONIC = True      !   [Boolean] default = False
                                ! If true, zeros the Laplacian of flow on open boundaries in the biharmonic
                                ! viscosity term.
OBC_RAMP_TIMESCALE = 2.0        !   [days] default = 1.0
                                ! If RAMP_OBCS is true, this sets the ramping timescale.
OBC_TIDE_N_CONSTITUENTS = 10    ! default = 0
                                ! Number of tidal constituents being added to the open boundary.
OBC_SEGMENT_001 = "J=N,I=N:0,FLATHER,ORLANSKI,NUDGED,ORLANSKI_TAN,NUDGED_TAN" !
                                ! Documentation needs to be dynamic?????
OBC_SEGMENT_001_VELOCITY_NUDGING_TIMESCALES = 3.0, 360.0 !   [days] default = 0.0
                                ! Timescales in days for nudging along a segment, for inflow, then outflow.
                                ! Setting both to zero should behave like SIMPLE obcs for the baroclinic
                                ! velocities.
OBC_SEGMENT_002 = "I=0,J=N:0,FLATHER,ORLANSKI,NUDGED,ORLANSKI_TAN,NUDGED_TAN" !
                                ! Documentation needs to be dynamic?????
OBC_SEGMENT_002_VELOCITY_NUDGING_TIMESCALES = 3.0, 360.0 !   [days] default = 0.0
                                ! Timescales in days for nudging along a segment, for inflow, then outflow.
                                ! Setting both to zero should behave like SIMPLE obcs for the baroclinic
                                ! velocities.
OBC_SEGMENT_003 = "J=0,I=0:N,FLATHER,ORLANSKI,NUDGED,ORLANSKI_TAN,NUDGED_TAN" !
                                ! Documentation needs to be dynamic?????
OBC_SEGMENT_003_VELOCITY_NUDGING_TIMESCALES = 3.0, 360.0 !   [days] default = 0.0
                                ! Timescales in days for nudging along a segment, for inflow, then outflow.
                                ! Setting both to zero should behave like SIMPLE obcs for the baroclinic
                                ! velocities.
OBC_SEGMENT_004 = "I=N,J=0:N,FLATHER,ORLANSKI,NUDGED,ORLANSKI_TAN,NUDGED_TAN" !
                                ! Documentation needs to be dynamic?????
OBC_SEGMENT_004_VELOCITY_NUDGING_TIMESCALES = 3.0, 360.0 !   [days] default = 0.0
                                ! Timescales in days for nudging along a segment, for inflow, then outflow.
                                ! Setting both to zero should behave like SIMPLE obcs for the baroclinic
                                ! velocities.
OBC_TRACER_RESERVOIR_LENGTH_SCALE_OUT = 3000.0 !   [m] default = 0.0
                                ! An effective length scale for restoring the tracer concentration at the
                                ! boundaries to externally imposed values when the flow is exiting the domain.
OBC_TRACER_RESERVOIR_LENGTH_SCALE_IN = 3000.0 !   [m] default = 0.0
                                ! An effective length scale for restoring the tracer concentration at the
                                ! boundaries to values from the interior when the flow is entering the domain.
BRUSHCUTTER_MODE = True         !   [Boolean] default = False
                                ! If true, read external OBC data on the supergrid.
OBC_REMAPPING_USE_OM4_SUBCELLS = False !   [Boolean] default = True
                                ! If true, use the OM4 remapping-via-subcells algorithm for neutral diffusion.
                                ! See REMAPPING_USE_OM4_SUBCELLS for more details. We recommend setting this
                                ! option to false.
OBC_TIDE_CONSTITUENTS = "M2,S2,N2,K2,K1,O1,P1,Q1,MM,MF" !
                                ! Names of tidal constituents being added to the open boundaries.
OBC_TIDE_ADD_EQ_PHASE = True    !   [Boolean] default = False
                                ! If true, add the equilibrium phase argument to the specified tidal phases.
OBC_TIDE_ADD_NODAL = True       !   [Boolean] default = False
                                ! If true, include 18.6 year nodal modulation in the boundary tidal forcing.
OBC_TIDE_REF_DATE = 2010, 1, 1  !
                                ! Reference date to use for tidal calculations and equilibrium phase.
OBC_TIDE_NODAL_REF_DATE = 1993, 7, 2 ! default = 0
                                ! Fixed reference date to use for nodal modulation of boundary tides.

! === module MOM_verticalGrid ===
! Parameters providing information about the vertical grid.
NK = 75                         !   [nondim]
                                ! The number of model layers.

! === module MOM_EOS ===
EQN_OF_STATE = "WRIGHT_FULL"    ! default = "WRIGHT"
                                ! EQN_OF_STATE determines which ocean equation of state should be used.
                                ! Currently, the valid choices are "LINEAR", "UNESCO", "JACKETT_MCD", "WRIGHT",
                                ! "WRIGHT_REDUCED", "WRIGHT_FULL", "NEMO", "ROQUET_RHO", "ROQUET_SPV" and
                                ! "TEOS10".  This is only used if USE_EOS is true.
TFREEZE_FORM = "MILLERO_78"     ! default = "LINEAR"
                                ! TFREEZE_FORM determines which expression should be used for the freezing
                                ! point.  Currently, the valid choices are "LINEAR", "MILLERO_78", "TEOS_POLY",
                                ! "TEOS10"

! === module MOM_restart ===
RESTART_CHECKSUMS_REQUIRED = False !   [Boolean] default = True
                                ! If true, require the restart checksums to match and error out otherwise. Users
                                ! may want to avoid this comparison if for example the restarts are made from a
                                ! run with a different mask_table than the current run, in which case the
                                ! checksums will not match and cause crash.

! === module MOM_tracer_flow_control ===

! === module MOM_boundary_update ===

! === module segment_tracer_registry_init ===

! === module MOM_coord_initialization ===
COORD_CONFIG = "ALE"            ! default = "none"
                                ! This specifies how layers are to be defined:
                                !     ALE or none - used to avoid defining layers in ALE mode
                                !     file - read coordinate information from the file
                                !       specified by (COORD_FILE).
                                !     BFB - Custom coords for buoyancy-forced basin case
                                !       based on SST_S, T_BOT and DRHO_DT.
                                !     linear - linear based on interfaces not layers
                                !     layer_ref - linear based on layer densities
                                !     ts_ref - use reference temperature and salinity
                                !     ts_range - use range of temperature and salinity
                                !       (T_REF and S_REF) to determine surface density
                                !       and GINT calculate internal densities.
                                !     gprime - use reference density (RHO_0) for surface
                                !       density and GINT calculate internal densities.
                                !     ts_profile - use temperature and salinity profiles
                                !       (read from COORD_FILE) to set layer densities.
                                !     USER - call a user modified routine.
REGRIDDING_COORDINATE_MODE = "HYCOM1" ! default = "LAYER"
                                ! Coordinate mode for vertical regridding. Choose among the following
                                ! possibilities:  LAYER - Isopycnal or stacked shallow water layers
                                !  ZSTAR, Z* - stretched geopotential z*
                                !  SIGMA_SHELF_ZSTAR - stretched geopotential z* ignoring shelf
                                !  SIGMA - terrain following coordinates
                                !  RHO   - continuous isopycnal
                                !  HYCOM1 - HyCOM-like hybrid coordinate
                                !  HYBGEN - Hybrid coordinate from the Hycom hybgen code
                                !  ADAPTIVE - optimize for smooth neutral density surfaces
ALE_COORDINATE_CONFIG = "HYBRID:hycom1_75_800m.nc,sigma2,FNC1:2,4000,4.5,.01" ! default = "UNIFORM"
                                ! Determines how to specify the coordinate resolution. Valid options are:
                                !  PARAM       - use the vector-parameter ALE_RESOLUTION
                                !  UNIFORM[:N] - uniformly distributed
                                !  FILE:string - read from a file. The string specifies
                                !                the filename and variable name, separated
                                !                by a comma or space, e.g. FILE:lev.nc,dz
                                !                or FILE:lev.nc,interfaces=zw
                                !  WOA09[:N]   - the WOA09 vertical grid (approximately)
                                !  WOA09INT[:N] - layers spanned by the WOA09 depths
                                !  WOA23INT[:N] - layers spanned by the WOA23 depths
                                !  FNC1:string - FNC1:dz_min,H_total,power,precision
                                !  HYBRID:string - read from a file. The string specifies
                                !                the filename and two variable names, separated
                                !                by a comma or space, for sigma-2 and dz. e.g.
                                !                HYBRID:vgrid.nc,sigma2,dz
!ALE_RESOLUTION = 7*2.0, 2*2.01, 2.02, 2.03, 2.05, 2.08, 2.11, 2.15, 2.21, 2.2800000000000002, 2.37, 2.48, 2.61, 2.77, 2.95, 3.17, 3.4299999999999997, 3.74, 4.09, 4.49, 4.95, 5.48, 6.07, 6.74, 7.5, 8.34, 9.280000000000001, 10.33, 11.49, 12.77, 14.19, 15.74, 17.450000000000003, 19.31, 21.35, 23.56, 25.97, 28.580000000000002, 31.41, 34.47, 37.77, 41.32, 45.14, 49.25, 53.65, 58.370000000000005, 63.42, 68.81, 74.56, 80.68, 87.21000000000001, 94.14, 101.51, 109.33, 117.62, 126.4, 135.68, 145.5, 155.87, 166.81, 178.35, 190.51, 203.31, 216.78, 230.93, 245.8, 261.42, 277.83 !   [m]
                                ! The distribution of vertical resolution for the target
                                ! grid used for Eulerian-like coordinates. For example,
                                ! in z-coordinate mode, the parameter is a list of level
                                ! thicknesses (in m). In sigma-coordinate mode, the list
                                ! is of non-dimensional fractions of the water column.
!TARGET_DENSITIES = 1010.0, 1014.3034, 1017.8088, 1020.843, 1023.5566, 1025.813, 1027.0275, 1027.9114, 1028.6422, 1029.2795, 1029.852, 1030.3762, 1030.8626, 1031.3183, 1031.7486, 1032.1572, 1032.5471, 1032.9207, 1033.2798, 1033.6261, 1033.9608, 1034.2519, 1034.4817, 1034.6774, 1034.8508, 1035.0082, 1035.1533, 1035.2886, 1035.4159, 1035.5364, 1035.6511, 1035.7608, 1035.8661, 1035.9675, 1036.0645, 1036.1554, 1036.2411, 1036.3223, 1036.3998, 1036.4739, 1036.5451, 1036.6137, 1036.68, 1036.7441, 1036.8062, 1036.8526, 1036.8874, 1036.9164, 1036.9418, 1036.9647, 1036.9857, 1037.0052, 1037.0236, 1037.0409, 1037.0574, 1037.0738, 1037.0902, 1037.1066, 1037.123, 1037.1394, 1037.1558, 1037.1722, 1037.1887, 1037.206, 1037.2241, 1037.2435, 1037.2642, 1037.2866, 1037.3112, 1037.3389, 1037.3713, 1037.4118, 1037.475, 1037.6332, 1037.8104, 1038.0 !   [m]
                                ! HYBRID target densities for interfaces
REGRID_COMPRESSIBILITY_FRACTION = 0.01 !   [nondim] default = 0.0
                                ! When interpolating potential density profiles we can add some artificial
                                ! compressibility solely to make homogeneous regions appear stratified.
MIN_THICKNESS = 1.0E-06         !   [m] default = 0.001
                                ! When regridding, this is the minimum layer thickness allowed.
MAXIMUM_INT_DEPTH_CONFIG = "FNC1:5,8000.0,1.0,.01" ! default = "NONE"
                                ! Determines how to specify the maximum interface depths.
                                ! Valid options are:
                                !  NONE        - there are no maximum interface depths
                                !  PARAM       - use the vector-parameter MAXIMUM_INTERFACE_DEPTHS
                                !  FILE:string - read from a file. The string specifies
                                !                the filename and variable name, separated
                                !                by a comma or space, e.g. FILE:lev.nc,Z
                                !  FNC1:string - FNC1:dz_min,H_total,power,precision
!MAXIMUM_INT_DEPTHS = 0.0, 5.0, 12.75, 23.25, 36.49, 52.480000000000004, 71.22, 92.71000000000001, 116.94000000000001, 143.92000000000002, 173.65, 206.13, 241.36, 279.33000000000004, 320.05000000000007, 363.5200000000001, 409.7400000000001, 458.7000000000001, 510.4100000000001, 564.8700000000001, 622.0800000000002, 682.0300000000002, 744.7300000000002, 810.1800000000003, 878.3800000000003, 949.3300000000004, 1023.0200000000004, 1099.4600000000005, 1178.6500000000005, 1260.5900000000006, 1345.2700000000007, 1432.7000000000007, 1522.8800000000008, 1615.8100000000009, 1711.490000000001, 1809.910000000001, 1911.080000000001, 2015.0000000000011, 2121.670000000001, 2231.080000000001, 2343.2400000000007, 2458.1500000000005, 2575.8100000000004, 2696.2200000000003, 2819.3700000000003, 2945.2700000000004, 3073.9200000000005, 3205.3200000000006, 3339.4600000000005, 3476.3500000000004, 3615.9900000000002, 3758.38, 3903.52, 4051.4, 4202.03, 4355.41, 4511.54, 4670.41, 4832.03, 4996.4, 5163.5199999999995, 5333.379999999999, 5505.989999999999, 5681.3499999999985, 5859.459999999998, 6040.319999999998, 6223.919999999998, 6410.269999999999, 6599.369999999999, 6791.219999999999, 6985.8099999999995, 7183.15, 7383.24, 7586.08, 7791.67, 8000.0
                                ! The list of maximum depths for each interface.
MAX_LAYER_THICKNESS_CONFIG = "FNC1:400,31000.0,0.1,.01" ! default = "NONE"
                                ! Determines how to specify the maximum layer thicknesses.
                                ! Valid options are:
                                !  NONE        - there are no maximum layer thicknesses
                                !  PARAM       - use the vector-parameter MAX_LAYER_THICKNESS
                                !  FILE:string - read from a file. The string specifies
                                !                the filename and variable name, separated
                                !                by a comma or space, e.g. FILE:lev.nc,Z
                                !  FNC1:string - FNC1:dz_min,H_total,power,precision
!MAX_LAYER_THICKNESS = 400.0, 409.63, 410.32, 410.75, 411.07, 411.32, 411.52, 411.7, 411.86, 412.0, 412.13, 412.24, 412.35, 412.45, 412.54, 412.63, 412.71, 412.79, 412.86, 412.93, 413.0, 413.06, 413.12, 413.18, 413.24, 413.29, 413.34, 413.39, 413.44, 413.49, 413.54, 413.58, 413.62, 413.67, 413.71, 413.75, 413.78, 413.82, 413.86, 413.9, 413.93, 413.97, 414.0, 414.03, 414.06, 414.1, 414.13, 414.16, 414.19, 414.22, 414.24, 414.27, 414.3, 414.33, 414.35, 414.38, 414.41, 414.43, 414.46, 414.48, 414.51, 414.53, 414.55, 414.58, 414.6, 414.62, 414.65, 414.67, 414.69, 414.71, 414.73, 414.75, 414.77, 414.79, 414.83 !   [m]
                                ! The list of maximum thickness for each layer.
REMAPPING_SCHEME = "PPM_H4"     ! default = "PLM"
                                ! This sets the reconstruction scheme used for vertical remapping for all
                                ! variables. It can be one of the following schemes:
                                ! PCM         (1st-order accurate)
                                ! PLM         (2nd-order accurate)
                                ! PLM_HYBGEN  (2nd-order accurate)
                                ! PPM_H4      (3rd-order accurate)
                                ! PPM_IH4     (3rd-order accurate)
                                ! PPM_HYBGEN  (3rd-order accurate)
                                ! WENO_HYBGEN (3rd-order accurate)
                                ! PQM_IH4IH3  (4th-order accurate)
                                ! PQM_IH6IH5  (5th-order accurate)
REMAPPING_USE_OM4_SUBCELLS = False !   [Boolean] default = True
                                ! This selects the remapping algorithm used in OM4 that does not use the full
                                ! reconstruction for the top- and lower-most sub-layers, but instead assumes
                                ! they are always vanished (untrue) and so just uses their edge values. We
                                ! recommend setting this option to false.

! === module MOM_state_initialization ===
INIT_LAYERS_FROM_Z_FILE = True  !   [Boolean] default = False
                                ! If true, initialize the layer thicknesses, temperatures, and salinities from a
                                ! Z-space file on a latitude-longitude grid.

! === module MOM_initialize_layers_from_Z ===
TEMP_SALT_Z_INIT_FILE = ""      ! default = "temp_salt_z.nc"
                                ! The name of the z-space input file used to initialize temperatures (T) and
                                ! salinities (S). If T and S are not in the same file, TEMP_Z_INIT_FILE and
                                ! SALT_Z_INIT_FILE must be set.
TEMP_Z_INIT_FILE = "woa13_ptemp_01.nc" ! default = ""
                                ! The name of the z-space input file used to initialize temperatures, only.
SALT_Z_INIT_FILE = "woa13_s_01.nc" ! default = ""
                                ! The name of the z-space input file used to initialize temperatures, only.
Z_INIT_FILE_PTEMP_VAR = "ptemp_an" ! default = "ptemp"
                                ! The name of the potential temperature variable in TEMP_Z_INIT_FILE.
Z_INIT_FILE_SALT_VAR = "s_an"   ! default = "salt"
                                ! The name of the salinity variable in SALT_Z_INIT_FILE.
Z_INIT_ALE_REMAPPING = True     !   [Boolean] default = False
                                ! If True, then remap straight to model coordinate from file.
Z_INIT_REMAP_GENERAL = True     !   [Boolean] default = False
                                ! If false, only initializes to z* coordinates. If true, allows initialization
                                ! directly to general coordinates.
DEPRESS_INITIAL_SURFACE = True  !   [Boolean] default = False
                                ! If true,  depress the initial surface to avoid huge tsunamis when a large
                                ! surface pressure is applied.
SURFACE_HEIGHT_IC_FILE = "glorys_ic_75z_1993.nc" !
                                ! The initial condition file for the surface height.
SURFACE_HEIGHT_IC_VAR = "ssh"   ! default = "SSH"
                                ! The initial condition variable for the surface height.