!DEBUG = True
DEBUG_BT = False
!VERBOSITY = 9
#override ENERGYSAVEDAYS = 0.0416666666666667 !   [days] default = 1.0
!#override DIABATIC_FIRST = True
#override RESTART_CHECKSUMS_REQUIRED = False
TIDAL_SAL_FLATHER = True
!#override SPLIT_RK2B = True
OBC_HOR_INDEXING_BUG = False

OBC_RESERVOIR_INIT_BUG = False
MIXING_COEFS_OBC_BUG = False
